grids/grid_urisi/cigre/cigre_eu_lv_com/validation/Comercial_Subnetwork_VLN.Txt

SYMMETRICAL COMPONENT VOLTAGES BY BUS (for 3-phase buses)

Bus        Mag:   V1 (kV)    p.u.     V2 (kV)   %V2/V1    V0 (kV)    %V0/V1

sourcebus     11.55     0.9999  5.022E-006  4.349E-005 7.511E-010 6.506E-009
c_01         0.2256      0.977  2.768E-005    0.01227 3.683E-005   0.01632
c_02         0.2224     0.9629  0.0002105    0.09468 0.0001035   0.04652
c_03         0.2191     0.9487  0.0003976     0.1815 0.0001883   0.08593
c_04         0.2176     0.9421   0.000486     0.2234 0.0002289    0.1052
c_05         0.2161     0.9355  0.0005745     0.2659 0.0002697    0.1248
c_06         0.2154     0.9328  0.0006115     0.2839 0.0002868    0.1332
c_07         0.2148       0.93  0.0006485      0.302  0.000304    0.1416
c_08         0.2141     0.9272  0.0006856     0.3202 0.0003212      0.15
c_09         0.2139     0.9263  0.0006979     0.3262 0.0003269    0.1528
c_10          0.215      0.931  0.0005081     0.2363 0.0002402    0.1117
c_11         0.2125     0.9201  0.0005771     0.2716 0.0002727    0.1283
c_12         0.2106     0.9121  0.0006148     0.2919 0.0002907     0.138
c_13         0.2106     0.9121  0.0006148     0.2919 0.0002907     0.138
c_14         0.2127     0.9211  0.0005532     0.2601 0.0002619    0.1231
c_15          0.214     0.9265  0.0006331     0.2959 0.0002973    0.1389
c_16         0.2124     0.9197   0.000678     0.3192 0.0003184    0.1499
c_18         0.2132     0.9233  0.0006481     0.3039 0.0003045    0.1428
c_17         0.2101     0.9096  0.0007278     0.3465 0.0003421    0.1629
c_19         0.2127     0.9209  0.0007166     0.3369 0.0003362    0.1581
c_20         0.2132     0.9231  0.0007133     0.3346 0.0003344    0.1568
